_does_
exist
number
licensed
philips
make
variant
chip
includes
extra
featurfes
ports
i2c
bus
making
microcontroller
confusion
numbering
philips
products
range
core
given
differend
numbers
pcf
pcd7
something
