netters
built
x11r5
under
solaris
used
multi
screen
patch
well
sunos
patch
everything
builds
great
except
error
xsun
gives
upon
startup
set
default
font
path
stuff
deleted
set
default
font
fixed
supply
option
doesn
complain
font
path
still
complains
font
symlinks
usr
lib
place
distribution
lives
try
run
xsun
under
truss
best
way
logging
over
network
typing
truss
open
xsun
open
opt
x11r5
lib
x11
fonts
misc
fonts
dir
o_rdonly
open
opt
x11r5
lib
x11
fonts
misc
fonts
alias
o_rdonly
open
opt
x11r5
lib
x11
fonts
speedo
fonts
dir
o_rdonly
open
opt
x11r5
lib
x11
fonts
speedo
fonts
alias
o_rdonly
err
enoent
open
opt
x11r5
lib
x11
fonts
75dpi
fonts
dir
o_rdonly
open
opt
x11r5
lib
x11
fonts
75dpi
fonts
alias
o_rdonly
open
opt
x11r5
lib
x11
fonts
100dpi
fonts
dir
o_rdonly
open
opt
x11r5
lib
x11
fonts
100dpi
fonts
alias
o_rdonly
open
opt
x11r5
lib
x11
fonts
misc
6x13
pcf
o_rdonly
open
opt
x11r5
lib
x11
fonts
misc
cursor
pcf
o_rdonly
give
idea
xsun
things
fonts
defined
project
root
done
make
install
everything
gone
right
default
without
symbolic
links
casper
