problem
run
use
lots
ascii
terminals
use
max
meaning
lots
attributes
line
draw
etc
need
come
working
xterm
emulate
advanced
ascii
terminals
closely
possible
means
needing
attributes
work
including
bold
line
drawing
fonts
seem
meet
criteria
pairs
fonts
bold
normal
both
linedraw
fixed
spacing
several
sizes
standard
fonts
work
fonts
9x15
9x15b
under
misc
work
great
except
need
font
size
larger
10x20
10x20
works
well
bold
counterpart
make
matters
worse
need
fonts
form
use
tektronix
xterminals
seems
pcf
format
although
convert
bdf
format
anyone
suggestions
mark
davis
lake
taylor
hospital
norfolk
5001x431
sys
administrator
computer
services
mark
taylor
mark
taylor
uucp
tedious
time
bdf
file
email
easy
access
source
make
bold
font
each
glyph
bitmap
write
program
convert
each
glyph
bitmap
readable
file
use
bitmap
make
each
glyph
bold
convert
results
back
bdf
format
use
bdftopcf
create
pcf
file
stick
pcf
usr
lib
x11
fonts
misc
wherever
include
fonts
dir
voila
need
ernie
coskrey
ncr
corporation
mcpd
columbia
ernie
coskrey
columbiasc
ncr
platt
springs
road
west
columbia
busting
buns
night
tell
old
man
drag
walton
lanier
down
court
minutes
roger
murdoch
pilot
